[JUNCTIONS]
;Id	Elevation
0EJYiGMsnFnR3hxf7ozmE	40.9
17XoYZROvTnlIfxTr0kzt	59.9
1qnD1fmhAuObMYMgrYnIM	36.4
2crT0ZZvk9w9Cq4BhhbE2	29.7
2shMpH6tTRcGUsEwupVWM	48.9
3EacWNpKJnEWPLIQ6OHvT	42.8
3o9bLnaEr796x864V9K0P	35.7
4O70xFQYS9vqCgiTVT0R8	52.4
5AeoeFZEdvzs98fvBrAv3	53.3
5r31fCvIXmEvicQc5cksJ	58.8
6gUNKIjMSx8ciPFsjyxWj	56.2
75FzGOmOQ9n5iWb1KlFBi	35.6
7PquvHXQRPiO2vOFwcDQx	54.7
7i0yFMsuf8bVdu0COUPmw	47.9
7ohTvqvDWHbHof7zmSj1U	64.7
8fHi3hFhtePSfxmkg6wE0	32.9
8ivp5fsprDJP93Zg3D7eI	30.7
9LA97TICY4KNEg5YTyZs1	39.7
9gK4QTJ8jAIDDoHcbOsTH	56.5
A9RtpGQxrcqGWyv622HgB	59.8
AkaxCY8rAAr4s2GsAjCxD	57.4
DncNTaHxM7eNjZHOfl2BC	47.4
FZzLlFpvK8QmNGORcMb0E	56.5
Fu4ZYs61SbrZwokFEDMNG	41.9
GEwozpyrTOyQZpsZopGNp	41.4
GXWNtIy0cCfrJ27cekY7u	37.8
IIk4h9IpdeVUE5hrpRXpv	56.2
IVBUogfoBwnURvcJPw0Cm	54.2
Ia19TMnbYh9OnFritqQLW	37.2
Irf13MERJNfHRaUWiFYyE	33.1
J9TtYTseMpksjLgbvawqT	39.2
JOiUuz7WglYbyXUEGUGAS	52.5
JcF6LbL3AX5F0vrxYZfst	71.9
K6EaQg0pONMVejGKiIoO0	56.2
KhHKI72uhxHjys0GsmLCB	53.3
Ld4Zz9WvRY3MoCD7uVCA6	39.4
LiDbHkdxpdapvgngnTqiz	58.9
O3ON3HiH2BlayWJ75ghbL	58.3
O8K7tlZ4iAEbc6oNFI6Jz	62.1
OCu7M3yBLLyUh7r7f3ent	34.5
OGLVonI3FagmKcSaEnyNy	44
OVVuOul830R8G8skAmdlx	54
OcijWPqVyhCqFx3bWiJQ9	56.4
PtpenDektq0nNXhGxGDGb	56.8
QVq0rsTS54QiIlCpXd3Z6	54.4
RNNKJ6m9HSRWugyVxhOu3	59.8
RfvzyJke0paxxB6JVPN9Y	56.1
SoTaTnAHPEfptwwv9c4Su	57.8
TA4nM6L4k9A94kJNKSCbB	52.3
TIGK6bmxrwIw5oM54NzfE	35.4
U2pnY1GlIAbrY5c0OR9f0	61.7
ULRWr4eMNVlfCHmdOOipQ	37.9
UTzxZ3thzH4XNDKcUoBgG	34.8
UstMQPa2z6anomIHKutx6	31.2
VrpcXTnHAxvfcpoAQbQ9F	30
VtKTqN0QIqu4YeUs6H0iz	58.5
Wa88Vb9YYyl2vDBZpFSEo	40.7
WczEg9uIjsnXVPrqhAaJM	52.6
WlBm7rQDmOKm6Q62N1zDX	39.8
XZyFKktflyzERJKnXih5Q	52.9
XqLYKrONeO0rGuiaoIps8	35.2
YVX1nDpRVz4mCZ7DqxQT6	54.8
bJRnvep5dFeIbOUZLVQ2a	39.1
bX2DZlMFgQMJ5vuFB9M1W	48.5
baI7AkALtimbKamnlCbal	41.4
braRa2Bxjb8RrvYjbNnhV	64
cWw83fwTCUqlZx8g0IpuO	51.9
ca1pAhmEoe9h2WQsGKP8j	53.5
cvj7YEeGKa7J2NHwKK7vL	41.2
dIWuXTEX2l6MxPMN6Cw1a	33
dJVEuSPfZpC346CldONDC	40.6
dX5Q1MpNWYvWyBcNRmMXB	50.2
dzXFjMFLQ9Y9XNRu9uQVv	58.6
fZY8x2BfctQ9rXiOn1fJ6	52.9
g6v8Ah7743frE8klDYey6	49
iMyhBW7DHKba9yojAtQ1n	49.4
iPq2GuCLZbFhqV5sth852	40.4
j1hoRQ6QzyZbflaFj9Yv2	42.2
k9ijQBbVRnbXOqjZF3u5d	61.6
kh2MWmki7BayhzJC3Thri	39
kwJe6fDQxYOmQBEr1P8RK	47.9
kyU1pF5LKJ8PbOmgsXSqC	60.7
kzWurXrAGEeMvIYLxC0MR	57
lSa3nrANelpB7JxiwZMVJ	43
mR1In6XzCoKmHP557nD2K	28.6
mwsyrMw1UdNYPpzTQm5ee	63.3
ogSIlaS2Ix9yKPvO1XIRS	38.4
pSLMAvblOsOtzK5xtlW0F	40.2
pSjTEFVU4he5DhSYVxWc7	45.7
pXK5XW6R6sza5bISBu4HE	45.4
qqYCVtb7zr5ObM072M8Db	26.1
rPXc6NuyLBz0JJHGvDkau	50.4
rQjpxKZ9XMKngFl79FpTF	43.7
se3a4wQmaGpzn8xa94rgU	53.9
tAfUmohrdMsDdCaBgZe8Y	28.4
tFrQNYIn8VyqbtuXFwVrw	56.4
unDsfStRaD6Pv6BXaAY2W	56.2
vDWPEmMNf2V4BS5rdRkon	40.7
vPjVXpdH0uMjWSzbkocvH	49.6
vmXzNcuYbYVuC64UsLj4p	54.6
vmeyNVbMuRa3V4QQBmB8P	48.7
wVg6ygMSFVf2aqd9FFFTd	60.6
wr07nWjrwx5FS9mLAAYFH	57
xT4Mcdetiz0K2sHCw4oMv	53.4
xvljfuNXFQQkGSNvRAuXl	49.5
ydWmtnoiNlWPDzD5iBuwQ	37.7
yo9knmt1bumISMo0CGN3b	35.4
yxzkPAJe2kZtFIicPBYCi	37.4
zs6kVhya2PwqfLPyHcnSx	43.3

[RESERVOIRS]
;Id	Head	Pattern
rv6NS0xL92T3kfDmQGq3D	86.5

[PIPES]
;Id	Start	End	Length	Diameter	Roughness	MinorLoss	Status
075PECAbgBiYbiw5IdXuy	OcijWPqVyhCqFx3bWiJQ9	IIk4h9IpdeVUE5hrpRXpv	31.93	50	85	0	Open
1YtxI8RsSfWV7oiKOM6UV	Ia19TMnbYh9OnFritqQLW	bJRnvep5dFeIbOUZLVQ2a	63.92	100	85	0	Open
1adhBCxNwIZJZaEytbvza	TIGK6bmxrwIw5oM54NzfE	yxzkPAJe2kZtFIicPBYCi	146.91	150	85	0	Open
1q1BX5n6T4iMg6sDRAwT2	mwsyrMw1UdNYPpzTQm5ee	kyU1pF5LKJ8PbOmgsXSqC	131.52	200	85	0	Open
1tygZz23KB2MS5wt3Ugcr	IVBUogfoBwnURvcJPw0Cm	OVVuOul830R8G8skAmdlx	21.23	63	85	0	Open
21E0pvgVIUeNbFQB545Oo	qqYCVtb7zr5ObM072M8Db	ogSIlaS2Ix9yKPvO1XIRS	361.57	100	85	0	Open
2JC0Da3UzJfdbO8W2zEXU	JOiUuz7WglYbyXUEGUGAS	xT4Mcdetiz0K2sHCw4oMv	28.01	100	85	0	Open
2K3lDH0xG0mXYKrYiFnCS	g6v8Ah7743frE8klDYey6	iMyhBW7DHKba9yojAtQ1n	14.52	100	85	0	Open
2WiKvkeYsflpncm3Y9dWA	XqLYKrONeO0rGuiaoIps8	yo9knmt1bumISMo0CGN3b	36.35	100	85	0	Open
34hUeKGLUGaSJC9Hqqkw6	TIGK6bmxrwIw5oM54NzfE	ydWmtnoiNlWPDzD5iBuwQ	85.06	100	85	0	Open
4EZHTQjPa1NTdP1VnryOS	75FzGOmOQ9n5iWb1KlFBi	2crT0ZZvk9w9Cq4BhhbE2	81.55	63	85	0	Open
527BE8nMhKJBrKCUvV0jJ	k9ijQBbVRnbXOqjZF3u5d	braRa2Bxjb8RrvYjbNnhV	53.44	100	85	0	Open
5yFhITDXbS9zi2pm7h56V	pSLMAvblOsOtzK5xtlW0F	Irf13MERJNfHRaUWiFYyE	167.11	100	85	0	Open
67Zs3F4DL0YLZBNmMRJWZ	OVVuOul830R8G8skAmdlx	fZY8x2BfctQ9rXiOn1fJ6	77.46	50	85	0	Open
6PM74ei3pnqXUxVzfagGG	dIWuXTEX2l6MxPMN6Cw1a	tAfUmohrdMsDdCaBgZe8Y	47.57	150	85	0	Open
6jxU3PfXQsehRoBJRKvL4	lSa3nrANelpB7JxiwZMVJ	pXK5XW6R6sza5bISBu4HE	83.48	63	85	0	Open
7iXwYsLZGuCUnaq69zwop	rv6NS0xL92T3kfDmQGq3D	JcF6LbL3AX5F0vrxYZfst	31.42	200	85	0	Open
7n2LS50yBH8sS7530CDjr	Fu4ZYs61SbrZwokFEDMNG	J9TtYTseMpksjLgbvawqT	38.87	100	85	0	Open
8UrMQPEttD53JJgapoS6a	bX2DZlMFgQMJ5vuFB9M1W	rQjpxKZ9XMKngFl79FpTF	54.61	150	85	0	Open
9LlxctEVozh0t5f5cgHCM	KhHKI72uhxHjys0GsmLCB	5AeoeFZEdvzs98fvBrAv3	104.45	100	85	0	Open
AwIPPjMd6LPeQwgRpbauj	5AeoeFZEdvzs98fvBrAv3	kwJe6fDQxYOmQBEr1P8RK	78.07	100	85	0	Open
BHuvUncKLIhdagSc9gYtV	Ia19TMnbYh9OnFritqQLW	Ld4Zz9WvRY3MoCD7uVCA6	49.79	100	85	0	Open
BNrfSrmH7t7Mtk3qSeXvf	TA4nM6L4k9A94kJNKSCbB	YVX1nDpRVz4mCZ7DqxQT6	65.62	100	85	0	Open
BjGT15hDnjn2fkjDqHgKK	2shMpH6tTRcGUsEwupVWM	XZyFKktflyzERJKnXih5Q	64.85	100	85	0	Open
CU50BGpeZOeQqfIDD0Rp9	4O70xFQYS9vqCgiTVT0R8	KhHKI72uhxHjys0GsmLCB	36.63	100	85	0	Open
CUed20CQaFEYdisa2f9kv	vPjVXpdH0uMjWSzbkocvH	kwJe6fDQxYOmQBEr1P8RK	90.87	100	85	0	Open
CUkV4DtKYbWceRD7vAHPk	cvj7YEeGKa7J2NHwKK7vL	TIGK6bmxrwIw5oM54NzfE	189.48	150	85	0	Open
Cb9Wgn7fqCvo1aLIxLmVv	ydWmtnoiNlWPDzD5iBuwQ	ULRWr4eMNVlfCHmdOOipQ	8.73	100	85	0	Open
CtgrC4vXDgaMCkHKeLorz	j1hoRQ6QzyZbflaFj9Yv2	0EJYiGMsnFnR3hxf7ozmE	42.04	100	85	0	Open
DfGLELhHCsLAo5T09oRgK	PtpenDektq0nNXhGxGDGb	ca1pAhmEoe9h2WQsGKP8j	171.33	100	85	0	Open
DnMKp8rWSM9lRe7tNSaUr	O3ON3HiH2BlayWJ75ghbL	A9RtpGQxrcqGWyv622HgB	74.58	63	85	0	Open
E57EyNzrmfShmPOeAsFfx	cvj7YEeGKa7J2NHwKK7vL	lSa3nrANelpB7JxiwZMVJ	94.99	100	85	0	Open
FWrbtU92kGHxMAUrjHpOQ	kwJe6fDQxYOmQBEr1P8RK	g6v8Ah7743frE8klDYey6	19.12	100	85	0	Open
FYcAv4eNG7iN7qMuodC4h	rQjpxKZ9XMKngFl79FpTF	dIWuXTEX2l6MxPMN6Cw1a	103.64	150	85	0	Open
Fk6PJLyn2BlsqLfIIVQCp	Irf13MERJNfHRaUWiFYyE	mR1In6XzCoKmHP557nD2K	114.02	100	85	0	Open
GTMFDT2K7V9BxlmBjP0dR	vmeyNVbMuRa3V4QQBmB8P	2shMpH6tTRcGUsEwupVWM	116.25	100	85	0	Open
H7xCG4xVaLziweepV3E8T	UTzxZ3thzH4XNDKcUoBgG	UstMQPa2z6anomIHKutx6	90.16	63	85	0	Open
Hp7klL5YdJKnW6mYhzSsB	YVX1nDpRVz4mCZ7DqxQT6	IVBUogfoBwnURvcJPw0Cm	39.93	100	85	0	Open
IbYqvkPtGq0QbUiPeqfmd	iPq2GuCLZbFhqV5sth852	9LA97TICY4KNEg5YTyZs1	111.95	100	85	0	Open
IhZvUgzLjLZMsBWH3j8JP	tAfUmohrdMsDdCaBgZe8Y	8ivp5fsprDJP93Zg3D7eI	26.42	100	85	0	Open
Kmu7WFKScBQ9nfTHTSxnB	9LA97TICY4KNEg5YTyZs1	GXWNtIy0cCfrJ27cekY7u	99.31	100	85	0	Open
KqJHC9SX8OcKnUxDFzwJv	LiDbHkdxpdapvgngnTqiz	k9ijQBbVRnbXOqjZF3u5d	82.22	100	85	0	Open
L0HQuvdIKi6RgOXfQfqB3	LiDbHkdxpdapvgngnTqiz	kzWurXrAGEeMvIYLxC0MR	66.55	63	85	0	Open
LKjhsq9wHmkOpx9u4AY41	ogSIlaS2Ix9yKPvO1XIRS	kh2MWmki7BayhzJC3Thri	133.83	100	85	0	Open
LT7BT7ny1IeydCP0aL3hD	ydWmtnoiNlWPDzD5iBuwQ	Ia19TMnbYh9OnFritqQLW	68.7	100	85	0	Open
MDr6Ym5gbvKOgejEAx2Ps	SoTaTnAHPEfptwwv9c4Su	O3ON3HiH2BlayWJ75ghbL	18.8	100	85	0	Open
MHTSVR5e3KMitJCXKl8YP	JOiUuz7WglYbyXUEGUGAS	rPXc6NuyLBz0JJHGvDkau	147.53	63	85	0	Open
N2b5TxXYWWwSvdYz1XFkP	cWw83fwTCUqlZx8g0IpuO	JOiUuz7WglYbyXUEGUGAS	23.84	100	85	0	Open
NyhRXowMpb8rebakacIdZ	ca1pAhmEoe9h2WQsGKP8j	DncNTaHxM7eNjZHOfl2BC	144.8	100	85	0	Open
O2uaDXJjRdJK4whus7WdA	iPq2GuCLZbFhqV5sth852	vDWPEmMNf2V4BS5rdRkon	77.56	100	85	0	Open
OfT5WoLNMUJOeTlMmfBaN	XqLYKrONeO0rGuiaoIps8	1qnD1fmhAuObMYMgrYnIM	42.03	100	85	0	Open
Owc44Jmvtb06fcvFpYZNM	O3ON3HiH2BlayWJ75ghbL	tFrQNYIn8VyqbtuXFwVrw	72.9	63	85	0	Open
RKL2AwafRYEVGkvpTEE7n	KhHKI72uhxHjys0GsmLCB	WczEg9uIjsnXVPrqhAaJM	59.55	100	85	0	Open
SMNFyucaotUz8PuKLdUtT	U2pnY1GlIAbrY5c0OR9f0	RNNKJ6m9HSRWugyVxhOu3	44.92	100	85	0	Open
SaCzGFnRWnTUX0bMRsBLS	O8K7tlZ4iAEbc6oNFI6Jz	dzXFjMFLQ9Y9XNRu9uQVv	42.24	100	85	0	Open
TS4iH89HKj19FN5Iluro4	xvljfuNXFQQkGSNvRAuXl	vmeyNVbMuRa3V4QQBmB8P	16.7	100	85	0	Open
TsGaxgs6PxM1fWhXrAqwF	pSLMAvblOsOtzK5xtlW0F	3EacWNpKJnEWPLIQ6OHvT	39.36	63	85	0	Open
UOpdXC3dUDmnpPWrBsfqf	xT4Mcdetiz0K2sHCw4oMv	O8K7tlZ4iAEbc6oNFI6Jz	133.7	100	85	0	Open
UtGi6BuxwcRPBuziWER0R	O8K7tlZ4iAEbc6oNFI6Jz	7ohTvqvDWHbHof7zmSj1U	158.24	63	85	0	Open
UxaoQmKAwv3kGfBUeuMZf	dX5Q1MpNWYvWyBcNRmMXB	TA4nM6L4k9A94kJNKSCbB	155.06	100	85	0	Open
VBBrKjlYEhv5vQO6NhffH	kyU1pF5LKJ8PbOmgsXSqC	VtKTqN0QIqu4YeUs6H0iz	35.48	200	85	0	Open
VEfpshGR9YMKiMiZ5kPh3	J9TtYTseMpksjLgbvawqT	75FzGOmOQ9n5iWb1KlFBi	44.67	100	85	0	Open
VShhot9pCndhxxlPfdSlf	kh2MWmki7BayhzJC3Thri	dJVEuSPfZpC346CldONDC	84.34	50	85	0	Open
W0OcbADMNJy0sM4PVEq7L	VtKTqN0QIqu4YeUs6H0iz	AkaxCY8rAAr4s2GsAjCxD	29.48	200	85	0	Open
WVgLhysN8KUYjVXvqD52c	SoTaTnAHPEfptwwv9c4Su	RNNKJ6m9HSRWugyVxhOu3	87.12	100	85	0	Open
X34Gh3YNdO5Q3Myya56qO	WczEg9uIjsnXVPrqhAaJM	se3a4wQmaGpzn8xa94rgU	110.48	100	85	0	Open
Xv8U1DshlI9L85dcElr0K	kyU1pF5LKJ8PbOmgsXSqC	wVg6ygMSFVf2aqd9FFFTd	86.74	100	85	0	Open
YnSCqerxBdWlE5PRUirpI	unDsfStRaD6Pv6BXaAY2W	7PquvHXQRPiO2vOFwcDQx	140.73	100	85	0	Open
ZbOQZo4bBNoBHOfhxmIEn	kh2MWmki7BayhzJC3Thri	8fHi3hFhtePSfxmkg6wE0	80.31	100	85	0	Open
aNrwZRJoc9kH642XNUkki	VrpcXTnHAxvfcpoAQbQ9F	mR1In6XzCoKmHP557nD2K	184.82	100	85	0	Open
aPX6QFuVnZkhVmhVF6z4U	XZyFKktflyzERJKnXih5Q	PtpenDektq0nNXhGxGDGb	72.25	100	85	0	Open
aqxapPQS1pu6LNx5ffMPw	cWw83fwTCUqlZx8g0IpuO	RfvzyJke0paxxB6JVPN9Y	101.2	150	85	0	Open
asISDtsCo5KqOH0CR2IP0	xT4Mcdetiz0K2sHCw4oMv	vmXzNcuYbYVuC64UsLj4p	100.57	63	85	0	Open
av4mEXUk2P2d98l8RUf9l	8fHi3hFhtePSfxmkg6wE0	OCu7M3yBLLyUh7r7f3ent	77.48	50	85	0	Open
axBfxkADsoCVcBvmRxqAi	rQjpxKZ9XMKngFl79FpTF	Fu4ZYs61SbrZwokFEDMNG	39.66	100	85	0	Open
bENWwhHJNWJnecI5z4LCp	bX2DZlMFgQMJ5vuFB9M1W	xvljfuNXFQQkGSNvRAuXl	228.15	150	85	0	Open
bjGY6DlAucz6inex2OOSj	ULRWr4eMNVlfCHmdOOipQ	9LA97TICY4KNEg5YTyZs1	47.37	100	85	0	Open
c5ge5QXRdymrhcoHWH9A6	3o9bLnaEr796x864V9K0P	Fu4ZYs61SbrZwokFEDMNG	63.98	63	85	0	Open
c71KLV6f99YVbFS5yY0N6	xvljfuNXFQQkGSNvRAuXl	cWw83fwTCUqlZx8g0IpuO	90.38	150	85	0	Open
cwjyfsnt46D33tLTPrcIT	RNNKJ6m9HSRWugyVxhOu3	k9ijQBbVRnbXOqjZF3u5d	51.64	100	85	0	Open
dooBY8E6QcjDhQqDK57cU	Ia19TMnbYh9OnFritqQLW	XqLYKrONeO0rGuiaoIps8	52.8	100	85	0	Open
eQybuiTKd5EsEUOTUJcg6	dzXFjMFLQ9Y9XNRu9uQVv	6gUNKIjMSx8ciPFsjyxWj	192.57	100	85	0	Open
ecVjoNtVOEgoZMG9SZF4J	lSa3nrANelpB7JxiwZMVJ	j1hoRQ6QzyZbflaFj9Yv2	46.64	100	85	0	Open
f3CqaMBjIEGVtG0xII1n5	FZzLlFpvK8QmNGORcMb0E	K6EaQg0pONMVejGKiIoO0	80.65	100	85	0	Open
hMrit4wpIRXK630lHzRqs	JcF6LbL3AX5F0vrxYZfst	mwsyrMw1UdNYPpzTQm5ee	99.05	200	85	0	Open
hZ6GuFPiMlPJ4i8fjzywJ	se3a4wQmaGpzn8xa94rgU	IVBUogfoBwnURvcJPw0Cm	10.16	100	85	0	Open
hi2pIfE5udrqAFCpUB1Vx	DncNTaHxM7eNjZHOfl2BC	pSLMAvblOsOtzK5xtlW0F	71.32	100	85	0	Open
hrIpFxU70dkraquU6H5mX	j1hoRQ6QzyZbflaFj9Yv2	OGLVonI3FagmKcSaEnyNy	149.36	63	85	0	Open
i3Aivy8OSeQPNtzpANlZz	AkaxCY8rAAr4s2GsAjCxD	unDsfStRaD6Pv6BXaAY2W	29.5	200	85	0	Open
itzcufHne63eA4yo3wCYC	ca1pAhmEoe9h2WQsGKP8j	PtpenDektq0nNXhGxGDGb	80.12	100	85	0	Open
j9zTAGY5jXfcNNPP0qn5o	VrpcXTnHAxvfcpoAQbQ9F	qqYCVtb7zr5ObM072M8Db	88.08	100	85	0	Open
ji8zwvCyqEimL2bHdJttF	6gUNKIjMSx8ciPFsjyxWj	RfvzyJke0paxxB6JVPN9Y	37.71	100	85	0	Open
jvOoXcbVf6uSDk2RXRmOS	RfvzyJke0paxxB6JVPN9Y	cvj7YEeGKa7J2NHwKK7vL	319.68	150	85	0	Open
kMO4kbGwHgkNgLdUYbgQD	YVX1nDpRVz4mCZ7DqxQT6	FZzLlFpvK8QmNGORcMb0E	53.58	100	85	0	Open
kXTW6GsmwF6jXL3h5CRXC	75FzGOmOQ9n5iWb1KlFBi	UTzxZ3thzH4XNDKcUoBgG	37.9	100	85	0	Open
kawPnrmcBPEiCcHefKGmn	5r31fCvIXmEvicQc5cksJ	OcijWPqVyhCqFx3bWiJQ9	28.33	63	85	0	Open
ll30Jt7TLWGOgxIxM2ux4	dzXFjMFLQ9Y9XNRu9uQVv	6gUNKIjMSx8ciPFsjyxWj	46.28	100	85	0	Open
lpXSxOpXcyIxCAdD79EPm	OcijWPqVyhCqFx3bWiJQ9	QVq0rsTS54QiIlCpXd3Z6	34.67	50	85	0	Open
mFCAAqSCBt7VjJbLiupUj	5r31fCvIXmEvicQc5cksJ	9gK4QTJ8jAIDDoHcbOsTH	67.28	100	85	0	Open
nDUaynTejofHVeHfBMw6U	7i0yFMsuf8bVdu0COUPmw	Wa88Vb9YYyl2vDBZpFSEo	160.73	100	85	0	Open
nH3Lidyur0cVQ3MRiHvY2	3EacWNpKJnEWPLIQ6OHvT	pSjTEFVU4he5DhSYVxWc7	126.77	63	85	0	Open
oOmDQwmAoOOoMQf4AMIxo	FZzLlFpvK8QmNGORcMb0E	SoTaTnAHPEfptwwv9c4Su	57.64	100	85	0	Open
oTG2OZvW2Bhus5ZuoR25B	Irf13MERJNfHRaUWiFYyE	GEwozpyrTOyQZpsZopGNp	112.46	100	85	0	Open
qTF82z69BTsz06W7i978i	pSjTEFVU4he5DhSYVxWc7	zs6kVhya2PwqfLPyHcnSx	45.14	50	85	0	Open
rDYrj8eIzrsxYpKimjPpu	WczEg9uIjsnXVPrqhAaJM	dX5Q1MpNWYvWyBcNRmMXB	64.11	100	85	0	Open
sMWW571Y9TmRlFQCz4MES	K6EaQg0pONMVejGKiIoO0	LiDbHkdxpdapvgngnTqiz	82.5	100	85	0	Open
soV3IB3tBCp8RKFM8OIv3	7i0yFMsuf8bVdu0COUPmw	vPjVXpdH0uMjWSzbkocvH	29.75	100	85	0	Open
tCJ7kltgLgfeug1GrsTKR	K6EaQg0pONMVejGKiIoO0	wr07nWjrwx5FS9mLAAYFH	92.27	100	85	0	Open
tIdOyXm4LFZeuhyN4SFBh	yxzkPAJe2kZtFIicPBYCi	ogSIlaS2Ix9yKPvO1XIRS	117.51	150	85	0	Open
tqz7FqGChijZ3CRaAdwiE	bX2DZlMFgQMJ5vuFB9M1W	7i0yFMsuf8bVdu0COUPmw	18.9	100	85	0	Open
ttSmm8JrIDE4HknJG23vx	vDWPEmMNf2V4BS5rdRkon	WlBm7rQDmOKm6Q62N1zDX	35.72	100	85	0	Open
uWu21MAga26zj1ZbM0utu	tAfUmohrdMsDdCaBgZe8Y	mR1In6XzCoKmHP557nD2K	182.01	100	85	0	Open
v4DFqSgIXfFW8zMUr7IXD	8ivp5fsprDJP93Zg3D7eI	baI7AkALtimbKamnlCbal	117.52	100	85	0	Open
vJ3Ssp01QiBlo2csBhabi	8fHi3hFhtePSfxmkg6wE0	VrpcXTnHAxvfcpoAQbQ9F	181.94	100	85	0	Open
wpQ2p2xbyF3PtplCLTiqk	unDsfStRaD6Pv6BXaAY2W	4O70xFQYS9vqCgiTVT0R8	36.35	200	85	0	Open
xJPYTwamTVPeYqCjFcJyG	AkaxCY8rAAr4s2GsAjCxD	5r31fCvIXmEvicQc5cksJ	60.04	100	85	0	Open
xPXDHAWkQUvNiojr9WwEk	VtKTqN0QIqu4YeUs6H0iz	17XoYZROvTnlIfxTr0kzt	126.66	100	85	0	Open
xSCLg486ZoxhCtO20u11y	vDWPEmMNf2V4BS5rdRkon	ULRWr4eMNVlfCHmdOOipQ	67.19	100	85	0	Open
y4XNP5jyfyEdhHQ5Ej5Zy	UTzxZ3thzH4XNDKcUoBgG	J9TtYTseMpksjLgbvawqT	133.65	100	85	0	Open
yvpBis0r0CCWz0RIQXfQg	4O70xFQYS9vqCgiTVT0R8	bX2DZlMFgQMJ5vuFB9M1W	76.98	200	85	0	Open
zgY4aEbkpd0XcIDLKaA0X	2shMpH6tTRcGUsEwupVWM	DncNTaHxM7eNjZHOfl2BC	101.26	100	85	0	Open
zvY95spvcH9T16mr1pq5s	iMyhBW7DHKba9yojAtQ1n	U2pnY1GlIAbrY5c0OR9f0	301.81	100	85	0	Open

[DEMANDS]
;Id	Demand	Pattern	Category
0EJYiGMsnFnR3hxf7ozmE	0.189167
17XoYZROvTnlIfxTr0kzt	0.08276
1qnD1fmhAuObMYMgrYnIM	0.023646
2crT0ZZvk9w9Cq4BhhbE2	0.20099
2shMpH6tTRcGUsEwupVWM	0.177344
3EacWNpKJnEWPLIQ6OHvT	0.106406
3o9bLnaEr796x864V9K0P	0.094583
4O70xFQYS9vqCgiTVT0R8	0.070938
5AeoeFZEdvzs98fvBrAv3	0.153698
5r31fCvIXmEvicQc5cksJ	0.094583
6gUNKIjMSx8ciPFsjyxWj	0.118229
75FzGOmOQ9n5iWb1KlFBi	0.070938
7PquvHXQRPiO2vOFwcDQx	0.141875
7i0yFMsuf8bVdu0COUPmw	0.094583
7ohTvqvDWHbHof7zmSj1U	0.189167
8fHi3hFhtePSfxmkg6wE0	0.461094
8ivp5fsprDJP93Zg3D7eI	0.059115
9LA97TICY4KNEg5YTyZs1	0.059115
9gK4QTJ8jAIDDoHcbOsTH	0.106406
A9RtpGQxrcqGWyv622HgB	0.165521
AkaxCY8rAAr4s2GsAjCxD	0.047292
DncNTaHxM7eNjZHOfl2BC	0.141875
FZzLlFpvK8QmNGORcMb0E	0.094583
Fu4ZYs61SbrZwokFEDMNG	0.08276
GEwozpyrTOyQZpsZopGNp	0.248281
GXWNtIy0cCfrJ27cekY7u	0.059115
IIk4h9IpdeVUE5hrpRXpv	0.023646
IVBUogfoBwnURvcJPw0Cm	0.011823
Ia19TMnbYh9OnFritqQLW	0.094583
Irf13MERJNfHRaUWiFYyE	0.118229
J9TtYTseMpksjLgbvawqT	0.094583
JOiUuz7WglYbyXUEGUGAS	0.011823
JcF6LbL3AX5F0vrxYZfst	0
K6EaQg0pONMVejGKiIoO0	0.165521
KhHKI72uhxHjys0GsmLCB	0.08276
Ld4Zz9WvRY3MoCD7uVCA6	0.035469
LiDbHkdxpdapvgngnTqiz	0.141875
O3ON3HiH2BlayWJ75ghbL	0.153698
O8K7tlZ4iAEbc6oNFI6Jz	0.153698
OCu7M3yBLLyUh7r7f3ent	0.130052
OGLVonI3FagmKcSaEnyNy	0.070938
OVVuOul830R8G8skAmdlx	0
OcijWPqVyhCqFx3bWiJQ9	0.023646
PtpenDektq0nNXhGxGDGb	0.260104
QVq0rsTS54QiIlCpXd3Z6	0.106406
RNNKJ6m9HSRWugyVxhOu3	0.047292
RfvzyJke0paxxB6JVPN9Y	0.035469
SoTaTnAHPEfptwwv9c4Su	0.011823
TA4nM6L4k9A94kJNKSCbB	0.106406
TIGK6bmxrwIw5oM54NzfE	0
U2pnY1GlIAbrY5c0OR9f0	0.08276
ULRWr4eMNVlfCHmdOOipQ	0.035469
UTzxZ3thzH4XNDKcUoBgG	0.094583
UstMQPa2z6anomIHKutx6	0.130052
VrpcXTnHAxvfcpoAQbQ9F	0.28375
VtKTqN0QIqu4YeUs6H0iz	0.106406
Wa88Vb9YYyl2vDBZpFSEo	0.070938
WczEg9uIjsnXVPrqhAaJM	0.20099
WlBm7rQDmOKm6Q62N1zDX	0.023646
XZyFKktflyzERJKnXih5Q	0.260104
XqLYKrONeO0rGuiaoIps8	0.023646
YVX1nDpRVz4mCZ7DqxQT6	0.094583
bJRnvep5dFeIbOUZLVQ2a	0.047292
bX2DZlMFgQMJ5vuFB9M1W	0.094583
baI7AkALtimbKamnlCbal	0.106406
braRa2Bxjb8RrvYjbNnhV	0.047292
cWw83fwTCUqlZx8g0IpuO	0.011823
ca1pAhmEoe9h2WQsGKP8j	0.271927
cvj7YEeGKa7J2NHwKK7vL	0
dIWuXTEX2l6MxPMN6Cw1a	0.153698
dJVEuSPfZpC346CldONDC	0.153698
dX5Q1MpNWYvWyBcNRmMXB	0.035469
dzXFjMFLQ9Y9XNRu9uQVv	0.118229
fZY8x2BfctQ9rXiOn1fJ6	0.035469
g6v8Ah7743frE8klDYey6	0.047292
iMyhBW7DHKba9yojAtQ1n	0.035469
iPq2GuCLZbFhqV5sth852	0.106406
j1hoRQ6QzyZbflaFj9Yv2	0.118229
k9ijQBbVRnbXOqjZF3u5d	0.153698
kh2MWmki7BayhzJC3Thri	0.28375
kwJe6fDQxYOmQBEr1P8RK	0.189167
kyU1pF5LKJ8PbOmgsXSqC	0.153698
kzWurXrAGEeMvIYLxC0MR	0.070938
lSa3nrANelpB7JxiwZMVJ	0.106406
mR1In6XzCoKmHP557nD2K	0.059115
mwsyrMw1UdNYPpzTQm5ee	0.035469
ogSIlaS2Ix9yKPvO1XIRS	0.153698
pSLMAvblOsOtzK5xtlW0F	0.059115
pSjTEFVU4he5DhSYVxWc7	0.106406
pXK5XW6R6sza5bISBu4HE	0.059115
qqYCVtb7zr5ObM072M8Db	0.059115
rPXc6NuyLBz0JJHGvDkau	0.212813
rQjpxKZ9XMKngFl79FpTF	0
se3a4wQmaGpzn8xa94rgU	0.236458
tAfUmohrdMsDdCaBgZe8Y	0.047292
tFrQNYIn8VyqbtuXFwVrw	0.118229
unDsfStRaD6Pv6BXaAY2W	0.118229
vDWPEmMNf2V4BS5rdRkon	0.106406
vPjVXpdH0uMjWSzbkocvH	0.070938
vmXzNcuYbYVuC64UsLj4p	0.106406
vmeyNVbMuRa3V4QQBmB8P	0.070938
wVg6ygMSFVf2aqd9FFFTd	0.094583
wr07nWjrwx5FS9mLAAYFH	0.141875
xT4Mcdetiz0K2sHCw4oMv	0.153698
xvljfuNXFQQkGSNvRAuXl	0.070938
ydWmtnoiNlWPDzD5iBuwQ	0.094583
yo9knmt1bumISMo0CGN3b	0.023646
yxzkPAJe2kZtFIicPBYCi	0.08276
zs6kVhya2PwqfLPyHcnSx	0.130052

[TIMES]
Duration	0

[REPORT]
Status	FULL
Summary	No
Page	0

[OPTIONS]
Quality	NONE
Unbalanced	CONTINUE 10
Accuracy	0.01
Units	LPS
Headloss	H-W

[COORDINATES]
;Node	X-coord	Y-coord
0EJYiGMsnFnR3hxf7ozmE	-4.3827615	55.9108906
17XoYZROvTnlIfxTr0kzt	-4.3817183	55.9170316
1qnD1fmhAuObMYMgrYnIM	-4.3855037	55.9105196
2crT0ZZvk9w9Cq4BhhbE2	-4.3773879	55.9142133
2shMpH6tTRcGUsEwupVWM	-4.3813719	55.9130458
3EacWNpKJnEWPLIQ6OHvT	-4.3803735	55.9124513
3o9bLnaEr796x864V9K0P	-4.3778147	55.9149107
4O70xFQYS9vqCgiTVT0R8	-4.3794679	55.9163479
5AeoeFZEdvzs98fvBrAv3	-4.3781637	55.9170297
5r31fCvIXmEvicQc5cksJ	-4.3808208	55.9165986
6gUNKIjMSx8ciPFsjyxWj	-4.3838571	55.9140189
75FzGOmOQ9n5iWb1KlFBi	-4.3786567	55.9142354
7PquvHXQRPiO2vOFwcDQx	-4.3809159	55.9152283
7i0yFMsuf8bVdu0COUPmw	-4.3787828	55.9157701
7ohTvqvDWHbHof7zmSj1U	-4.3847221	55.9152284
8fHi3hFhtePSfxmkg6wE0	-4.3798578	55.9110625
8ivp5fsprDJP93Zg3D7eI	-4.3761609	55.9151892
9LA97TICY4KNEg5YTyZs1	-4.3876978	55.9095069
9gK4QTJ8jAIDDoHcbOsTH	-4.3813095	55.9171134
A9RtpGQxrcqGWyv622HgB	-4.3748317	55.917894
AkaxCY8rAAr4s2GsAjCxD	-4.3804314	55.9161048
DncNTaHxM7eNjZHOfl2BC	-4.3815022	55.9121382
FZzLlFpvK8QmNGORcMb0E	-4.3769283	55.9178649
Fu4ZYs61SbrZwokFEDMNG	-4.3788355	55.9149609
GEwozpyrTOyQZpsZopGNp	-4.3798066	55.9125817
GXWNtIy0cCfrJ27cekY7u	-4.3862805	55.9092442
IIk4h9IpdeVUE5hrpRXpv	-4.3801832	55.9164533
IVBUogfoBwnURvcJPw0Cm	-4.3782648	55.9174977
Ia19TMnbYh9OnFritqQLW	-4.3866532	55.9103413
Irf13MERJNfHRaUWiFYyE	-4.3785695	55.9129792
J9TtYTseMpksjLgbvawqT	-4.3788874	55.9146148
JOiUuz7WglYbyXUEGUGAS	-4.3821107	55.9139191
JcF6LbL3AX5F0vrxYZfst	-4.3837019	55.9168356
K6EaQg0pONMVejGKiIoO0	-4.3772851	55.9185517
KhHKI72uhxHjys0GsmLCB	-4.3796973	55.9166512
Ld4Zz9WvRY3MoCD7uVCA6	-4.3870068	55.9105321
LiDbHkdxpdapvgngnTqiz	-4.3760077	55.9185788
O3ON3HiH2BlayWJ75ghbL	-4.3760247	55.9178413
O8K7tlZ4iAEbc6oNFI6Jz	-4.3834001	55.914749
OCu7M3yBLLyUh7r7f3ent	-4.3800963	55.9113228
OGLVonI3FagmKcSaEnyNy	-4.3832604	55.9114373
OVVuOul830R8G8skAmdlx	-4.3781459	55.9173188
OcijWPqVyhCqFx3bWiJQ9	-4.3804133	55.9167099
PtpenDektq0nNXhGxGDGb	-4.3835461	55.9130638
QVq0rsTS54QiIlCpXd3Z6	-4.3805982	55.9169976
RNNKJ6m9HSRWugyVxhOu3	-4.3746659	55.9180693
RfvzyJke0paxxB6JVPN9Y	-4.3837039	55.9137873
SoTaTnAHPEfptwwv9c4Su	-4.3760594	55.918009
TA4nM6L4k9A94kJNKSCbB	-4.3781671	55.9181967
TIGK6bmxrwIw5oM54NzfE	-4.3857677	55.9098125
U2pnY1GlIAbrY5c0OR9f0	-4.3739454	55.9180829
ULRWr4eMNVlfCHmdOOipQ	-4.3872331	55.9098308
UTzxZ3thzH4XNDKcUoBgG	-4.3788033	55.9139247
UstMQPa2z6anomIHKutx6	-4.3780533	55.9138742
VrpcXTnHAxvfcpoAQbQ9F	-4.3774084	55.9118242
VtKTqN0QIqu4YeUs6H0iz	-4.3808663	55.9160031
Wa88Vb9YYyl2vDBZpFSEo	-4.3762984	55.9158654
WczEg9uIjsnXVPrqhAaJM	-4.3800589	55.9171469
WlBm7rQDmOKm6Q62N1zDX	-4.387245	55.9105317
XZyFKktflyzERJKnXih5Q	-4.3824108	55.9130788
XqLYKrONeO0rGuiaoIps8	-4.3858552	55.9101974
YVX1nDpRVz4mCZ7DqxQT6	-4.3777113	55.9176659
bJRnvep5dFeIbOUZLVQ2a	-4.3860952	55.9108229
bX2DZlMFgQMJ5vuFB9M1W	-4.3790582	55.9156988
baI7AkALtimbKamnlCbal	-4.3780235	55.9153417
braRa2Bxjb8RrvYjbNnhV	-4.3738638	55.9186122
cWw83fwTCUqlZx8g0IpuO	-4.3821754	55.9137082
ca1pAhmEoe9h2WQsGKP8j	-4.3836639	55.9123495
cvj7YEeGKa7J2NHwKK7vL	-4.3853594	55.9114018
dIWuXTEX2l6MxPMN6Cw1a	-4.3769994	55.9150671
dJVEuSPfZpC346CldONDC	-4.3813705	55.9112697
dX5Q1MpNWYvWyBcNRmMXB	-4.3804741	55.9176744
dzXFjMFLQ9Y9XNRu9uQVv	-4.3837581	55.9144311
fZY8x2BfctQ9rXiOn1fJ6	-4.3778188	55.9170176
g6v8Ah7743frE8klDYey6	-4.3773771	55.9164594
iMyhBW7DHKba9yojAtQ1n	-4.3774883	55.9165742
iPq2GuCLZbFhqV5sth852	-4.3888445	55.9102775
j1hoRQ6QzyZbflaFj9Yv2	-4.3832828	55.9110576
k9ijQBbVRnbXOqjZF3u5d	-4.3746975	55.9185121
kh2MWmki7BayhzJC3Thri	-4.3811463	55.9110659
kwJe6fDQxYOmQBEr1P8RK	-4.3776565	55.9163884
kyU1pF5LKJ8PbOmgsXSqC	-4.3813427	55.9158301
kzWurXrAGEeMvIYLxC0MR	-4.3761601	55.9182887
lSa3nrANelpB7JxiwZMVJ	-4.3839678	55.9112161
mR1In6XzCoKmHP557nD2K	-4.3773018	55.9134429
mwsyrMw1UdNYPpzTQm5ee	-4.3822209	55.9169048
ogSIlaS2Ix9yKPvO1XIRS	-4.3826092	55.9104042
pSLMAvblOsOtzK5xtlW0F	-4.380364	55.9121024
pSjTEFVU4he5DhSYVxWc7	-4.380501	55.9135137
pXK5XW6R6sza5bISBu4HE	-4.3835359	55.9116001
qqYCVtb7zr5ObM072M8Db	-4.3770567	55.911059
rPXc6NuyLBz0JJHGvDkau	-4.3808363	55.9145812
rQjpxKZ9XMKngFl79FpTF	-4.3785993	55.915284
rv6NS0xL92T3kfDmQGq3D	-4.3835785	55.9165616
se3a4wQmaGpzn8xa94rgU	-4.3784201	55.9175255
tAfUmohrdMsDdCaBgZe8Y	-4.3762794	55.9149611
tFrQNYIn8VyqbtuXFwVrw	-4.376963	55.9175717
unDsfStRaD6Pv6BXaAY2W	-4.3799979	55.9162114
vDWPEmMNf2V4BS5rdRkon	-4.3876431	55.910351
vPjVXpdH0uMjWSzbkocvH	-4.3789573	55.9160191
vmXzNcuYbYVuC64UsLj4p	-4.3828823	55.9140062
vmeyNVbMuRa3V4QQBmB8P	-4.3807547	55.9139754
wVg6ygMSFVf2aqd9FFFTd	-4.3820806	55.9151863
wr07nWjrwx5FS9mLAAYFH	-4.3774333	55.9189582
xT4Mcdetiz0K2sHCw4oMv	-4.3820654	55.9141697
xvljfuNXFQQkGSNvRAuXl	-4.381008	55.9140244
ydWmtnoiNlWPDzD5iBuwQ	-4.3870957	55.9098154
yo9knmt1bumISMo0CGN3b	-4.3858608	55.9098722
yxzkPAJe2kZtFIicPBYCi	-4.3844947	55.9103995
zs6kVhya2PwqfLPyHcnSx	-4.380235	55.9133366

[VERTICES]
;link	X-coord	Y-coord
1YtxI8RsSfWV7oiKOM6UV	-4.3863686	55.9106103
1adhBCxNwIZJZaEytbvza	-4.3855374	55.9097894
1adhBCxNwIZJZaEytbvza	-4.3854809	55.9097024
1adhBCxNwIZJZaEytbvza	-4.3853117	55.9096826
1adhBCxNwIZJZaEytbvza	-4.3851071	55.9096826
1adhBCxNwIZJZaEytbvza	-4.3850154	55.909738
1adhBCxNwIZJZaEytbvza	-4.3850067	55.9099839
1adhBCxNwIZJZaEytbvza	-4.3849714	55.9102065
1adhBCxNwIZJZaEytbvza	-4.384786	55.9103352
1q1BX5n6T4iMg6sDRAwT2	-4.3817747	55.9163089
1tygZz23KB2MS5wt3Ugcr	-4.3781532	55.9173309
21E0pvgVIUeNbFQB545Oo	-4.3777553	55.9109442
21E0pvgVIUeNbFQB545Oo	-4.3783214	55.9108025
21E0pvgVIUeNbFQB545Oo	-4.379044	55.9105594
21E0pvgVIUeNbFQB545Oo	-4.3796945	55.9104244
21E0pvgVIUeNbFQB545Oo	-4.3805014	55.9103907
21E0pvgVIUeNbFQB545Oo	-4.3818023	55.9103974
2JC0Da3UzJfdbO8W2zEXU	-4.382081	55.9140694
2WiKvkeYsflpncm3Y9dWA	-4.3858776	55.9101161
2WiKvkeYsflpncm3Y9dWA	-4.3858552	55.9100004
34hUeKGLUGaSJC9Hqqkw6	-4.3860187	55.9097904
34hUeKGLUGaSJC9Hqqkw6	-4.3861526	55.9097435
34hUeKGLUGaSJC9Hqqkw6	-4.386599	55.9097654
4EZHTQjPa1NTdP1VnryOS	-4.3784086	55.9142765
4EZHTQjPa1NTdP1VnryOS	-4.378121	55.9143113
4EZHTQjPa1NTdP1VnryOS	-4.3778954	55.9142955
4EZHTQjPa1NTdP1VnryOS	-4.377636	55.9142544
527BE8nMhKJBrKCUvV0jJ	-4.3741748	55.9185491
5yFhITDXbS9zi2pm7h56V	-4.3802071	55.912095
5yFhITDXbS9zi2pm7h56V	-4.3800783	55.9120857
5yFhITDXbS9zi2pm7h56V	-4.3798107	55.9120774
5yFhITDXbS9zi2pm7h56V	-4.3796885	55.9120876
5yFhITDXbS9zi2pm7h56V	-4.3795406	55.9121148
5yFhITDXbS9zi2pm7h56V	-4.3794035	55.9121601
5yFhITDXbS9zi2pm7h56V	-4.3792995	55.9122212
5yFhITDXbS9zi2pm7h56V	-4.3792119	55.9123138
5yFhITDXbS9zi2pm7h56V	-4.3790559	55.9124699
5yFhITDXbS9zi2pm7h56V	-4.3788872	55.9126417
5yFhITDXbS9zi2pm7h56V	-4.3786511	55.9128875
5yFhITDXbS9zi2pm7h56V	-4.3785806	55.9129648
67Zs3F4DL0YLZBNmMRJWZ	-4.3780749	55.9173303
67Zs3F4DL0YLZBNmMRJWZ	-4.3780619	55.9173465
67Zs3F4DL0YLZBNmMRJWZ	-4.3780843	55.9173758
67Zs3F4DL0YLZBNmMRJWZ	-4.3780768	55.9174093
67Zs3F4DL0YLZBNmMRJWZ	-4.3779834	55.9174276
67Zs3F4DL0YLZBNmMRJWZ	-4.3779311	55.9174161
67Zs3F4DL0YLZBNmMRJWZ	-4.3778291	55.9172977
67Zs3F4DL0YLZBNmMRJWZ	-4.3776712	55.9170905
67Zs3F4DL0YLZBNmMRJWZ	-4.3776625	55.9170602
67Zs3F4DL0YLZBNmMRJWZ	-4.3777195	55.9170446
6PM74ei3pnqXUxVzfagGG	-4.3766473	55.9150376
6PM74ei3pnqXUxVzfagGG	-4.376374	55.9150111
6jxU3PfXQsehRoBJRKvL4	-4.3838263	55.9114206
6jxU3PfXQsehRoBJRKvL4	-4.383871	55.9114665
6jxU3PfXQsehRoBJRKvL4	-4.3839678	55.9115124
6jxU3PfXQsehRoBJRKvL4	-4.384005	55.9116042
6jxU3PfXQsehRoBJRKvL4	-4.3839454	55.9116627
6jxU3PfXQsehRoBJRKvL4	-4.3838412	55.9116752
7n2LS50yBH8sS7530CDjr	-4.3788879	55.914839
8UrMQPEttD53JJgapoS6a	-4.3789488	55.9155689
8UrMQPEttD53JJgapoS6a	-4.3788376	55.9154954
8UrMQPEttD53JJgapoS6a	-4.3787264	55.9153752
9LlxctEVozh0t5f5cgHCM	-4.3794094	55.9167256
9LlxctEVozh0t5f5cgHCM	-4.3788724	55.9168497
9LlxctEVozh0t5f5cgHCM	-4.3784627	55.916949
AwIPPjMd6LPeQwgRpbauj	-4.3778861	55.9166665
AwIPPjMd6LPeQwgRpbauj	-4.3777639	55.9164963
BHuvUncKLIhdagSc9gYtV	-4.3868144	55.9103787
BHuvUncKLIhdagSc9gYtV	-4.3867525	55.9104315
BHuvUncKLIhdagSc9gYtV	-4.3866964	55.9104943
BHuvUncKLIhdagSc9gYtV	-4.3866846	55.9105224
BHuvUncKLIhdagSc9gYtV	-4.3866964	55.9105307
BHuvUncKLIhdagSc9gYtV	-4.3867141	55.9105389
BHuvUncKLIhdagSc9gYtV	-4.3867554	55.9105389
BNrfSrmH7t7Mtk3qSeXvf	-4.3781036	55.9181146
BNrfSrmH7t7Mtk3qSeXvf	-4.3779768	55.9179435
BNrfSrmH7t7Mtk3qSeXvf	-4.3778658	55.9178103
BjGT15hDnjn2fkjDqHgKK	-4.3818217	55.9130608
CU50BGpeZOeQqfIDD0Rp9	-4.3796254	55.9165519
CUed20CQaFEYdisa2f9kv	-4.3778639	55.9163282
CUkV4DtKYbWceRD7vAHPk	-4.3854528	55.9112702
CUkV4DtKYbWceRD7vAHPk	-4.3854859	55.9111898
CUkV4DtKYbWceRD7vAHPk	-4.3853645	55.9111094
CUkV4DtKYbWceRD7vAHPk	-4.3852432	55.9110352
CUkV4DtKYbWceRD7vAHPk	-4.3852211	55.9108311
CUkV4DtKYbWceRD7vAHPk	-4.3854635	55.9103037
CUkV4DtKYbWceRD7vAHPk	-4.3855975	55.9100683
CUkV4DtKYbWceRD7vAHPk	-4.3856772	55.9098815
CtgrC4vXDgaMCkHKeLorz	-4.3831487	55.9109741
CtgrC4vXDgaMCkHKeLorz	-4.3830668	55.9108948
CtgrC4vXDgaMCkHKeLorz	-4.3829551	55.910899
CtgrC4vXDgaMCkHKeLorz	-4.3828807	55.9109073
DfGLELhHCsLAo5T09oRgK	-4.3839156	55.9130878
DfGLELhHCsLAo5T09oRgK	-4.3841726	55.9130908
DfGLELhHCsLAo5T09oRgK	-4.3843386	55.9130638
DfGLELhHCsLAo5T09oRgK	-4.384419	55.9129708
DfGLELhHCsLAo5T09oRgK	-4.38451	55.9128507
DfGLELhHCsLAo5T09oRgK	-4.3845261	55.9127367
DfGLELhHCsLAo5T09oRgK	-4.3844993	55.9125956
DfGLELhHCsLAo5T09oRgK	-4.3844511	55.9124816
DfGLELhHCsLAo5T09oRgK	-4.3843922	55.9124305
DfGLELhHCsLAo5T09oRgK	-4.3842904	55.9123915
DfGLELhHCsLAo5T09oRgK	-4.3841726	55.9123795
DfGLELhHCsLAo5T09oRgK	-4.3839905	55.9123615
DfGLELhHCsLAo5T09oRgK	-4.3837978	55.9123555
DnMKp8rWSM9lRe7tNSaUr	-4.3757427	55.9178555
DnMKp8rWSM9lRe7tNSaUr	-4.3752222	55.9178738
E57EyNzrmfShmPOeAsFfx	-4.3850772	55.9114248
E57EyNzrmfShmPOeAsFfx	-4.3849283	55.9113664
E57EyNzrmfShmPOeAsFfx	-4.3847645	55.9112579
E57EyNzrmfShmPOeAsFfx	-4.3844518	55.9112537
E57EyNzrmfShmPOeAsFfx	-4.3841763	55.9112453
FYcAv4eNG7iN7qMuodC4h	-4.3783972	55.9152143
FYcAv4eNG7iN7qMuodC4h	-4.3780188	55.9151496
FYcAv4eNG7iN7qMuodC4h	-4.3775932	55.9151083
Fk6PJLyn2BlsqLfIIVQCp	-4.3783746	55.9131957
Fk6PJLyn2BlsqLfIIVQCp	-4.378212	55.9133341
Fk6PJLyn2BlsqLfIIVQCp	-4.3780734	55.9134624
Fk6PJLyn2BlsqLfIIVQCp	-4.3779288	55.9135097
Fk6PJLyn2BlsqLfIIVQCp	-4.3777541	55.9135367
Fk6PJLyn2BlsqLfIIVQCp	-4.3776035	55.9135198
GTMFDT2K7V9BxlmBjP0dR	-4.3806779	55.9138916
GTMFDT2K7V9BxlmBjP0dR	-4.3807233	55.9138006
GTMFDT2K7V9BxlmBjP0dR	-4.3809115	55.913666
GTMFDT2K7V9BxlmBjP0dR	-4.3811063	55.9134696
GTMFDT2K7V9BxlmBjP0dR	-4.3812036	55.9133969
GTMFDT2K7V9BxlmBjP0dR	-4.3813075	55.9133023
GTMFDT2K7V9BxlmBjP0dR	-4.3813399	55.9131568
H7xCG4xVaLziweepV3E8T	-4.378668	55.9138615
H7xCG4xVaLziweepV3E8T	-4.3784706	55.9138015
H7xCG4xVaLziweepV3E8T	-4.3782451	55.9137793
H7xCG4xVaLziweepV3E8T	-4.3781041	55.9137667
H7xCG4xVaLziweepV3E8T	-4.3779462	55.9137857
H7xCG4xVaLziweepV3E8T	-4.3778503	55.9138268
H7xCG4xVaLziweepV3E8T	-4.3778165	55.9138742
H7xCG4xVaLziweepV3E8T	-4.3778503	55.9139089
H7xCG4xVaLziweepV3E8T	-4.3779123	55.9139216
H7xCG4xVaLziweepV3E8T	-4.3780026	55.9138931
Hp7klL5YdJKnW6mYhzSsB	-4.3780283	55.9175882
Hp7klL5YdJKnW6mYhzSsB	-4.3781829	55.9175526
IbYqvkPtGq0QbUiPeqfmd	-4.3887915	55.9102294
IbYqvkPtGq0QbUiPeqfmd	-4.3885348	55.9100198
IbYqvkPtGq0QbUiPeqfmd	-4.3882056	55.9097915
IbYqvkPtGq0QbUiPeqfmd	-4.3879433	55.9096445
Kmu7WFKScBQ9nfTHTSxnB	-4.387536	55.9093849
Kmu7WFKScBQ9nfTHTSxnB	-4.387363	55.9093005
Kmu7WFKScBQ9nfTHTSxnB	-4.3869891	55.9092536
Kmu7WFKScBQ9nfTHTSxnB	-4.3865204	55.9092379
KqJHC9SX8OcKnUxDFzwJv	-4.3757364	55.9185491
KqJHC9SX8OcKnUxDFzwJv	-4.3753063	55.9185195
KqJHC9SX8OcKnUxDFzwJv	-4.3750879	55.9185084
L0HQuvdIKi6RgOXfQfqB3	-4.3760137	55.9184902
L0HQuvdIKi6RgOXfQfqB3	-4.3760309	55.9184251
L0HQuvdIKi6RgOXfQfqB3	-4.3760309	55.9183093
L0HQuvdIKi6RgOXfQfqB3	-4.3760266	55.9182043
L0HQuvdIKi6RgOXfQfqB3	-4.3760244	55.9181681
L0HQuvdIKi6RgOXfQfqB3	-4.3760696	55.9181596
L0HQuvdIKi6RgOXfQfqB3	-4.3761192	55.9181596
L0HQuvdIKi6RgOXfQfqB3	-4.376145	55.9181946
L0HQuvdIKi6RgOXfQfqB3	-4.3761515	55.9182562
LKjhsq9wHmkOpx9u4AY41	-4.3824953	55.9106946
LKjhsq9wHmkOpx9u4AY41	-4.3821219	55.9109512
LKjhsq9wHmkOpx9u4AY41	-4.3818208	55.9110524
LT7BT7ny1IeydCP0aL3hD	-4.3870884	55.9100223
LT7BT7ny1IeydCP0aL3hD	-4.3870159	55.9100692
LT7BT7ny1IeydCP0aL3hD	-4.3868819	55.910113
LT7BT7ny1IeydCP0aL3hD	-4.3867759	55.9102225
MDr6Ym5gbvKOgejEAx2Ps	-4.3760319	55.9179163
MHTSVR5e3KMitJCXKl8YP	-4.3819327	55.9138987
MHTSVR5e3KMitJCXKl8YP	-4.3816697	55.9138987
MHTSVR5e3KMitJCXKl8YP	-4.3815119	55.913935
MHTSVR5e3KMitJCXKl8YP	-4.3813096	55.9140438
MHTSVR5e3KMitJCXKl8YP	-4.3811721	55.9141753
MHTSVR5e3KMitJCXKl8YP	-4.3811033	55.9143227
MHTSVR5e3KMitJCXKl8YP	-4.3811518	55.9144179
MHTSVR5e3KMitJCXKl8YP	-4.3812206	55.9145222
MHTSVR5e3KMitJCXKl8YP	-4.3811883	55.9146016
MHTSVR5e3KMitJCXKl8YP	-4.3811114	55.9146288
MHTSVR5e3KMitJCXKl8YP	-4.3809536	55.9146401
N2b5TxXYWWwSvdYz1XFkP	-4.3821512	55.9138261
NyhRXowMpb8rebakacIdZ	-4.3834878	55.9123443
NyhRXowMpb8rebakacIdZ	-4.3834975	55.9122878