;MADE BY EPANET-JS [3297293e]
[JUNCTIONS]
;Id	Elevation
J1	745.7349081
J2	749.015748
J3	758.2020997
J4	723.4251969
J5	757.2178478
J6	758.5301837
J7	780.839895
J8	746.3910761
J9	750.984252
J10	783.7926509
J11	718.832021
J12	743.1102362
J13	768.0446194
J14	765.7480315
J15	751.312336
J16	771.6535433
J17	749.015748
J18	758.5301837
J19	732.6115486
J20	743.4383202
J21	751.6404199
J22	778.5433071
J23	784.1207349
J24	740.1574803
J25	770.6692913
J26	742.4540682
J27	719.488189
J28	736.2204724
J29	755.9055118
J30	730.3149606
J31	754.9212598
J32	759.8425197
J33	750.984252
J34	767.7165354
J35	759.8425197
J36	754.5931759
J37	745.4068241
J38	750.656168
J39	754.5931759
J40	757.8740157
J41	758.8582677
J42	785.7611549
J43	771.9816273
J44	763.7795276
J45	757.5459318
J46	724.7375328
J47	759.8425197
J48	754.2650919
J49	763.1233596
J50	763.7795276
J51	734.5800525
J52	783.4645669
J53	748.3595801
J54	760.8267717
J55	752.6246719
J56	761.4829396
J57	738.1889764
J58	763.1233596
J59	760.8267717
J60	790.6824147
J61	761.4829396
J62	757.8740157
J63	759.8425197
J64	759.5144357
J65	757.8740157
J66	746.3910761
J67	757.5459318
J68	763.4514436
J69	755.5774278
J70	730.9711286
J71	752.9527559
J72	771.3254593
J73	760.4986877
J74	756.8897638
J75	752.9527559
J76	762.1391076
J77	713.9107612
J78	770.3412073
J79	734.9081365
J80	739.1732283
J81	748.3595801
J82	735.8923885
J83	727.3622047
J84	745.0787402
J85	765.7480315
J86	754.5931759
J87	751.6404199
J88	757.2178478
J89	756.5616798
J90	755.9055118
J91	770.3412073
J92	742.7821522
J93	756.5616798
J94	746.7191601
J95	767.3884514
J96	753.2808399
J97	747.3753281
J98	773.2939633
J99	763.1233596
J100	751.6404199
J101	750.328084
J102	750
J103	747.7034121
J104	745.0787402
J105	776.9028871
J106	770.6692913
J107	746.3910761
J108	755.9055118
J109	763.7795276
J110	758.5301837
J111	764.4356955
J112	757.5459318
J113	754.2650919
J114	753.6089239
J115	767.3884514
J116	729.0026247
J117	789.3700787
J118	770.6692913
J119	783.7926509
J120	772.9658793
J121	779.5275591
J122	768.0446194

[RESERVOIRS]
;Id	Head	Pattern
R1	925

[PIPES]
;Id	Start	End	Length	Diameter	Roughness	MinorLoss	Status
P1	J85	J105	204.74	6	130	0	Open
P2	J77	J27	198.4	6	130	0	Open
P3	J2	J12	420.7	8	130	0	Open
P4	J40	J32	345.2	6	130	0	Open
P5	J23	J117	368.05	12	130	0	Open
P6	J111	J53	1248.13	6	130	0	Open
P7	J103	J75	969.02	6	130	0	Open
P8	J38	J101	341.48	6	130	0	Open
P9	J48	J65	327.33	6	130	0	Open
P10	J14	J6	296.32	6	130	0	Open
P11	J99	J3	515.01	6	130	0	Open
P12	J76	J122	520.68	6	130	0	Open
P13	J118	J10	360.98	12	130	0	Open
P14	J66	J61	902.07	12	130	0	Open
P15	J117	J16	207.33	6	130	0	Open
P16	J84	J97	463.18	8	130	0	Open
P17	J11	J38	1190.42	6	130	0	Open
P18	J74	J20	286.61	6	130	0	Open
P19	J71	J82	980.9	6	130	0	Open
P20	J104	J51	203.53	6	130	0	Open
P21	J111	J120	1408.74	6	130	0	Open
P22	J34	J54	369.45	6	130	0	Open
P23	J122	J76	1112.16	6	130	0	Open
P24	J96	J24	242.49	8	130	0	Open
P25	J34	J7	477.27	6	130	0	Open
P26	J15	J81	244.61	6	130	0	Open
P27	J36	J29	325.35	6	130	0	Open
P28	J88	J5	97.81	6	130	0	Open
P29	J31	J50	398.39	6	130	0	Open
P30	J42	J121	196.02	6	130	0	Open
P31	J74	J78	654.2	6	130	0	Open
P32	J9	J53	204.97	6	130	0	Open
P33	J6	J84	421.79	8	130	0	Open
P34	J3	J85	970.01	6	130	0	Open
P35	J112	J110	204.59	6	130	0	Open
P36	J9	J45	1210.62	6	130	0	Open
P37	J103	J87	346.57	6	130	0	Open
P38	J8	J116	601.87	6	130	0	Open
P39	J104	J82	407.4	6	130	0	Open
P40	J1	J96	1889.77	6	130	0	Open
P41	J73	J68	797.47	6	130	0	Open
P42	J98	J91	1085.3	12	130	0	Open
P43	R1	J60	1589.25	12	130	0	Open
P44	J13	J106	186.32	6	130	0	Open
P45	J90	J106	610.01	6	130	0	Open
P46	J85	J49	267.66	6	130	0	Open
P47	J86	J39	345.87	12	130	0	Open
P48	J119	J22	1780.22	6	130	0	Open
P49	J63	J89	259.97	6	130	0	Open
P50	J13	J118	624.51	6	130	0	Open
P51	J78	J110	592.32	6	130	0	Open
P52	J94	J48	899.01	6	130	0	Open
P53	J70	J114	973.86	6	130	0	Open
P54	J108	J55	144.26	6	130	0	Open
P55	J10	J52	449.37	12	130	0	Open
P56	J112	J71	1044.93	12	130	0	Open
P57	J92	J83	1056.95	6	130	0	Open
P58	J64	J89	1220.8	6	130	0	Open
P59	J12	J1	357.56	8	130	0	Open
P60	J42	J52	510.8	12	130	0	Open
P61	J62	J73	514.57	6	130	0	Open
P62	J109	J47	728.5	6	130	0	Open
P63	J102	J100	319.78	6	130	0	Open
P64	J110	J74	1166.82	6	130	0	Open
P65	J63	J50	897.65	6	130	0	Open
P66	J63	J21	626.63	6	130	0	Open
P67	J4	J57	177.16	6	130	0	Open
P68	J7	J49	971.89	6	130	0	Open
P69	J49	J7	967.35	6	130	0	Open
P70	J56	J93	626.1	12	130	0	Open
P71	J76	J65	187.74	6	130	0	Open
P72	J90	J41	421.18	6	130	0	Open
P73	J82	J19	185.6	6	130	0	Open
P74	J53	J97	234.22	6	130	0	Open
P75	J99	J34	354.1	6	130	0	Open
P76	J104	J37	235.2	6	130	0	Open
P77	J64	J61	326	6	130	0	Open
P78	J8	J28	199.94	6	130	0	Open
P79	J96	J12	1473.06	6	130	0	Open
P80	J35	J120	646.74	6	130	0	Open
P81	J82	J92	977.83	6	130	0	Open
P82	J22	J119	280.97	6	130	0	Open
P83	J18	J31	485.97	6	130	0	Open
P84	J93	J59	256	6	130	0	Open
P85	J25	J35	410.35	6	130	0	Open
P86	J119	J52	674.2	6	130	0	Open
P87	J17	J36	1158.27	6	130	0	Open
P88	J3	J45	263.33	6	130	0	Open
P89	J115	J25	239.16	8	130	0	Open
P90	J62	J90	155.47	6	130	0	Open
P91	J120	J25	315.5	8	130	0	Open
P92	J106	J54	1043.37	6	130	0	Open
P93	J50	J35	173.38	6	130	0	Open
P94	J80	J88	508.11	6	130	0	Open
P95	J83	J46	157.68	6	130	0	Open
P96	J79	J24	1300.47	12	130	0	Open
P97	J101	J104	507.04	6	130	0	Open
P98	J71	J65	569.47	8	130	0	Open
P99	J40	J36	458.67	6	130	0	Open
P100	J29	J13	644.72	6	130	0	Open
P101	J15	J18	538.86	6	130	0	Open
P102	J86	J67	577.19	12	130	0	Open
P103	J54	J62	301.07	6	130	0	Open
P104	J48	J113	599.75	6	130	0	Open
P105	J120	J98	380.44	8	130	0	Open
P106	J80	J33	289.29	6	130	0	Open
P107	J117	J60	330.09	12	130	0	Open
P108	J93	J67	432.71	12	130	0	Open
P109	J2	J26	1159.43	6	130	0	Open
P110	J91	J23	1235.92	12	130	0	Open
P111	J6	J72	384.67	8	130	0	Open
P112	J39	J32	340.78	12	130	0	Open
P113	J47	J94	321.81	8	130	0	Open
P114	J89	J64	260.8	6	130	0	Open
P115	J72	J112	1284.2	12	130	0	Open
P116	J33	J17	307.76	6	130	0	Open
P117	J118	J56	261.16	12	130	0	Open
P118	J32	J72	1771.14	12	130	0	Open
P119	J81	J18	636.98	6	130	0	Open
P120	J109	J122	293.51	6	130	0	Open
P121	J73	J58	270.71	6	130	0	Open
P122	J78	J44	384.09	6	130	0	Open
P123	J26	J2	249.86	8	130	0	Open
P124	J95	J98	789	12	130	0	Open
P125	J45	J111	325.54	6	130	0	Open
P126	J115	J111	277.26	6	130	0	Open
P127	J83	J77	205.27	6	130	0	Open
P128	J101	J8	334.76	6	130	0	Open
P129	J26	J103	305.93	6	130	0	Open
P130	J58	J9	831.49	6	130	0	Open
P131	J60	J42	582.23	12	130	0	Open
P132	J34	J22	380.49	6	130	0	Open
P133	J92	J30	1687.94	6	130	0	Open
P134	J108	J4	538.94	6	130	0	Open
P135	J31	J102	853.35	6	130	0	Open
P136	J65	J47	308.42	8	130	0	Open
P137	J94	J109	1048.87	6	130	0	Open
P138	J116	J4	301.2	6	130	0	Open
P139	J14	J44	1091.66	6	130	0	Open
P140	J61	J95	469.53	12	130	0	Open
P141	J69	J86	191.38	6	130	0	Open
P142	J75	J63	276.32	6	130	0	Open
P143	J101	J107	318.26	6	130	0	Open
P144	J114	J15	243.98	6	130	0	Open
P145	J44	J14	283.45	6	130	0	Open
P146	J24	J66	213	12	130	0	Open
P147	J17	J40	1199.15	6	130	0	Open
P148	J38	J108	223.94	6	130	0	Open
P149	J97	J115	1364.99	8	130	0	Open
P150	J29	J43	500.08	6	130	0	Open
P151	J70	J26	341.54	8	130	0	Open
P152	J84	J80	292.99	6	130	0	Open
P153	J85	J91	217.17	6	130	0	Open
P154	J102	J81	290.12	6	130	0	Open
P155	J1	J96	287.37	8	130	0	Open
P156	J88	J33	778.82	6	130	0	Open
P157	J75	J12	728.56	6	130	0	Open
P158	J94	J70	564.96	8	130	0	Open
P159	J58	J99	1057.16	6	130	0	Open
P160	J11	J79	1425.65	6	130	0	Open

[DEMANDS]
;Id	Demand	Pattern	Category
J1	9.182453613
J2	7.308483488
J3	6.371498425
J4	0.187397013
J5	1.311779088
J6	2.436161163
J7	11.61861478
J8	0
J9	4.122734275
J10	0.936985063
J11	0.374794025
J12	10.11943868
J13	2.436161163
J14	2.436161163
J15	2.810955188
J16	1.311779088
J17	8.620262575
J18	5.621910375
J19	0.562191038
J20	0.374794025
J21	3.185749213
J22	5.9967044
J23	2.9983522
J24	1.686573113
J25	4.122734275
J26	3.560543238
J27	0.374794025
J28	0.374794025
J29	3.935337263
J30	1.124382075
J31	5.9967044
J32	0.74958805
J33	2.436161163
J34	3.74794025
J35	4.122734275
J36	3.935337263
J37	0.562191038
J38	0
J39	0.374794025
J40	5.809307388
J41	4.4975283
J42	0
J43	2.9983522
J44	3.560543238
J45	7.121086475
J46	0.374794025
J47	5.809307388
J48	4.310131288
J49	6.74629245
J50	2.9983522
J51	0.187397013
J52	0.562191038
J53	3.185749213
J54	3.560543238
J55	0.374794025
J56	0.187397013
J57	0.562191038
J58	8.9950566
J59	0.374794025
J60	0
J61	2.24876415
J62	2.810955188
J63	7.683277513
J64	5.809307388
J65	1.311779088
J66	3.560543238
J67	0.187397013
J68	4.310131288
J69	0.562191038
J70	2.436161163
J71	1.686573113
J72	0.374794025
J73	6.184101413
J74	2.810955188
J75	5.621910375
J76	5.059719338
J77	0
J78	4.122734275
J79	0.187397013
J80	2.623558175
J81	4.310131288
J82	0.74958805
J83	0
J84	3.185749213
J85	3.373146225
J86	0
J87	2.9983522
J88	4.4975283
J89	4.872322325
J90	4.4975283
J91	1.686573113
J92	1.686573113
J93	0.562191038
J94	6.184101413
J95	2.9983522
J96	4.872322325
J97	3.560543238
J98	1.686573113
J99	6.933689463
J100	8.432865563
J101	0
J102	4.4975283
J103	3.560543238
J104	0.187397013
J105	3.74794025
J106	4.310131288
J107	0.187397013
J108	0
J109	7.121086475
J110	2.436161163
J111	8.24546855
J112	0.74958805
J113	3.373146225
J114	4.310131288
J115	1.686573113
J116	0.936985063
J117	0
J118	0.187397013
J119	3.74794025
J120	3.560543238
J121	0.74958805
J122	6.184101413

[TIMES]
Duration	0

[REPORT]
Status	FULL
Summary	No
Page	0

[OPTIONS]
Quality	NONE
Unbalanced	CONTINUE 10
Accuracy	0.001
Units	GPM
Headloss	H-W

[BACKDROP]
Units	DEGREES

[COORDINATES]
;Node	X-coord	Y-coord
J1	-79.9171911	43.3256616
J2	-79.9147451	43.3245454
J3	-79.90747	43.3311682
J4	-79.9163231	43.3172539
J5	-79.9033482	43.3255554
J6	-79.90411	43.3254005
J7	-79.9059264	43.333668
J8	-79.9143231	43.3181411
J9	-79.9049355	43.3283007
J10	-79.9000935	43.3342813
J11	-79.9187981	43.3210127
J12	-79.9160712	43.3251535
J13	-79.9008059	43.3323527
J14	-79.9048564	43.3247964
J15	-79.9099774	43.3255744
J16	-79.9046186	43.3361424
J17	-79.9029289	43.3279663
J18	-79.910776	43.3268464
J19	-79.9105968	43.3174219
J20	-79.909138	43.32522
J21	-79.9118903	43.3259392
J22	-79.9038004	43.3331985
J23	-79.9061655	43.3358465
J24	-79.9185956	43.3266903
J25	-79.9104642	43.329994
J26	-79.914102	43.3240452
J27	-79.9119483	43.3125519
J28	-79.9136326	43.3179403
J29	-79.8997712	43.3308952
J30	-79.9176964	43.3122386
J31	-79.9101977	43.3279998
J32	-79.8987405	43.3283849
J33	-79.903642	43.3273179
J34	-79.9049296	43.3326106
J35	-79.9115683	43.3292066
J36	-79.8999075	43.3300332
J37	-79.9116905	43.3189412
J38	-79.9153022	43.3191147
J39	-79.8979164	43.3291013
J40	-79.8995358	43.3291306
J41	-79.9018651	43.3306516
J42	-79.9026869	43.3361151
J43	-79.9013287	43.3315108
J44	-79.9057289	43.3243681
J45	-79.9081591	43.3306488
J46	-79.9115125	43.3136286
J47	-79.9112437	43.3214121
J48	-79.9111621	43.3201543
J49	-79.9080721	43.332591
J50	-79.9111564	43.3288377
J51	-79.9126951	43.3180001
J52	-79.9013447	43.3351114
J53	-79.9054479	43.3278803
J54	-79.9041932	43.3317653
J55	-79.9147861	43.3184215
J56	-79.8984536	43.3330626
J57	-79.9167399	43.3168746
J58	-79.9057123	43.3299313
J59	-79.8974405	43.3313508
J60	-79.9043009	43.3371963
J61	-79.9156464	43.328867
J62	-79.9033857	43.3311856
J63	-79.9135808	43.3271223
J64	-79.9149229	43.3281552
J65	-79.9103789	43.3208474
J66	-79.9180261	43.3271017
J67	-79.895633	43.3310099
J68	-79.9030259	43.3302829
J69	-79.8976277	43.3301574
J70	-79.9132704	43.3233354
J71	-79.9087554	43.3198268
J72	-79.9030525	43.3246794
J73	-79.9050021	43.330464
J74	-79.9084763	43.3245991
J75	-79.9143342	43.3265995
J76	-79.9099235	43.3212412
J77	-79.9113728	43.3128989
J78	-79.9067383	43.3236137
J79	-79.9220163	43.3241393
J80	-79.9044076	43.3267534
J81	-79.9091606	43.3258744
J82	-79.911116	43.317758
J83	-79.9119072	43.3133056
J84	-79.9052321	43.3262193
J85	-79.908819	43.3330739
J86	-79.8970717	43.3298233
J87	-79.9126544	43.3252452
J88	-79.9030876	43.325745
J89	-79.9142735	43.3276262
J90	-79.9029662	43.3314831
J91	-79.9094455	43.3334415
J92	-79.9135136	43.315723
J93	-79.8967734	43.3318577
J94	-79.9120531	43.3220655
J95	-79.9143984	43.3297793
J96	-79.9179672	43.3262101
J97	-79.9058255	43.3273119
J98	-79.9123312	43.3313335
J99	-79.9059606	43.3320282
J100	-79.907276	43.3267376
J101	-79.9140283	43.3190333
J102	-79.9081735	43.3262153
J103	-79.9131739	43.3245397
J104	-79.9122933	43.3184706
J105	-79.9083757	43.3335124
J106	-79.9013513	43.3326731
J107	-79.9136959	43.3198715
J108	-79.9153181	43.3185024
J109	-79.9093071	43.3228191
J110	-79.9067644	43.3223758
J111	-79.9090452	43.3300317
J112	-79.9061917	43.3220006
J113	-79.9097215	43.320068
J114	-79.9105258	43.3250377
J115	-79.909824	43.3295326
J116	-79.9154581	43.3167195
J117	-79.9051673	43.336547
J118	-79.8991495	43.3335688
J119	-79.9031125	43.333784
J120	-79.9113013	43.3306081
J121	-79.903213	43.3357379
J122	-79.9085309	43.322246
R1	-79.8996286	43.3377997

[VERTICES]
;link	X-coord	Y-coord
P1	-79.9084378	43.3333448
P3	-79.9151731	43.3248389
P3	-79.9154503	43.3249438
P3	-79.9158384	43.3250728
P4	-79.8992477	43.3288097
P4	-79.8989416	43.3285674
P6	-79.908526	43.3297282
P6	-79.9081088	43.3294584
P6	-79.9075989	43.3290673
P6	-79.9069035	43.3285749
P6	-79.9064771	43.3282647
P6	-79.9062267	43.3281231
P7	-79.9135289	43.3248547
P7	-79.913806	43.3251129
P7	-79.9140311	43.325346
P7	-79.9141177	43.3254594
P7	-79.9140657	43.3255853
P7	-79.9137887	43.3257554
P7	-79.9135982	43.3259066
P7	-79.9136155	43.3260641
P7	-79.9138233	43.3262278
P7	-79.9140831	43.3264168
P8	-79.9145161	43.3191147
P11	-79.9065308	43.3315952
P11	-79.9071681	43.3313634
P12	-79.9091016	43.3218557
P14	-79.9169132	43.3279225
P14	-79.9161821	43.3284498
P16	-79.9057606	43.3266307
P16	-79.9058811	43.3268195
P16	-79.9058997	43.3270556
P17	-79.9175809	43.3201314
P17	-79.9167234	43.3195191
P17	-79.9164058	43.3193343
P17	-79.9161041	43.3192187
P17	-79.9157151	43.3191378
P20	-79.9125382	43.3182468
P21	-79.9096432	43.3304398
P21	-79.9096525	43.3305949
P21	-79.9089664	43.331094
P21	-79.9089664	43.3312153
P21	-79.9095134	43.3314716
P21	-79.9097452	43.331647
P21	-79.9099121	43.3316402
P21	-79.9108856	43.3309051
P22	-79.9045754	43.3320618
P23	-79.9078459	43.3217561
P23	-79.9077775	43.3216398
P23	-79.9081085	43.3213159
P23	-79.9086108	43.3208924
P23	-79.9088505	43.320693
P23	-79.9089418	43.3206681
P23	-79.9090217	43.3206764
P23	-79.9094669	43.3209505
P24	-79.9184108	43.3265166
P25	-79.9054435	43.3333748
P26	-79.9095595	43.3257729
P27	-79.8997502	43.3302391
P29	-79.91069	43.3283799
P31	-79.90822	43.3246865
P31	-79.9079963	43.3246865
P31	-79.9078565	43.3245899
P31	-79.9074512	43.324295
P31	-79.9070738	43.3240357
P31	-79.906934	43.3239035
P33	-79.9050189	43.3260641
P34	-79.9086417	43.3320098
P34	-79.9093155	43.3324935
P34	-79.9094042	43.3326611
P35	-79.9066266	43.3222923
P36	-79.9069828	43.3297851
P37	-79.912637	43.3247791
P37	-79.9125678	43.3248421
P37	-79.9125938	43.3251192
P38	-79.9152865	43.3168493
P39	-79.9114205	43.3179864
P40	-79.9167058	43.3261208
P40	-79.916468	43.3263881
P40	-79.9160141	43.3266397
P40	-79.9154089	43.3269699
P40	-79.9151171	43.3271586
P40	-79.9156899	43.327536
P40	-79.9158844	43.3277561
P40	-79.9160682	43.3277561
P40	-79.9172462	43.3268677
P41	-79.9046095	43.3301967
P41	-79.904163	43.3298871
P41	-79.9039398	43.3297298
P41	-79.903877	43.3296385
P41	-79.9037863	43.3295776
P41	-79.9036817	43.3295979
P41	-79.903584	43.3297349
P41	-79.9031096	43.3301003
P42	-79.9116103	43.3318765
P43	-79.8999771	43.3379114
P43	-79.9004107	43.3375387
P43	-79.9026838	43.338437
P44	-79.901194	43.3325968
P46	-79.9084179	43.3328812
P48	-79.9039005	43.3343256
P48	-79.9052117	43.3351787
P48	-79.9057981	43.3347818
P48	-79.9058633	43.3346455
P48	-79.9051873	43.3341538
P49	-79.9141177	43.3275128
P51	-79.9064657	43.3234001
P51	-79.9061931	43.3232527
P51	-79.9060743	43.3231611
P51	-79.9060813	43.3230188
P51	-79.9062001	43.322851
P51	-79.9064867	43.3226069
P52	-79.9123565	43.3217794
P52	-79.9125024	43.3215472
P52	-79.91263	43.3212753
P52	-79.9125753	43.3211625
P52	-79.9122015	43.3209237
P52	-79.9114539	43.3203665
P53	-79.9124703	43.3238553
P53	-79.912211	43.3240221
P53	-79.911882	43.3241382
P53	-79.9112338	43.324363
P57	-79.912746	43.3152979
P57	-79.9123525	43.3149931
P57	-79.9121949	43.3145319
P57	-79.912236	43.314161
P57	-79.912236	43.3137423
P57	-79.9121373	43.3134911
P58	-79.9141177	43.3287347
P58	-79.9137367	43.3290119
P58	-79.9135808	43.3290937
P58	-79.913425	43.3290685
P58	-79.9132865	43.328867
P58	-79.913096	43.328615
P58	-79.9130527	43.3285143
P58	-79.9139791	43.3278277
P59	-79.9165702	43.3252825
P59	-79.9168363	43.3253955
P59	-79.9170691	43.3255729
P61	-79.903848	43.3308273
P61	-79.9046359	43.3306255
P62	-79.9102888	43.3222128
P63	-79.9075054	43.3264402
P64	-79.907201	43.322543
P64	-79.9078903	43.3230529
P64	-79.9085452	43.323546
P64	-79.9090392	43.3239555
P64	-79.9091656	43.324106
P64	-79.9090622	43.3242648
P65	-79.9121519	43.3281561
P65	-79.9116151	43.3285324
P65	-79.9114297	43.3286531
P66	-79.9129737	43.3266421
P66	-79.9125637	43.3263581
P66	-79.912144	43.3260315
P68	-79.9063768	43.3339977
P68	-79.9065275	43.3341267
P68	-79.9067403	43.334146
P68	-79.9068822	43.3340106
P68	-79.9072989	43.3336623
P68	-79.9075472	43.3330174
P69	-79.9077174	43.332333
P69	-79.9074781	43.3321718
P69	-79.9072564	43.3321395
P69	-79.9069549	43.332275
P69	-79.9066535	43.3325587
P69	-79.9064762	43.3330231
P69	-79.9063254	43.3333971
P73	-79.9105968	43.3174311
P74	-79.905689	43.327651
P75	-79.9052951	43.3325192
P76	-79.9118851	43.3188178
P77	-79.9151308	43.3284576
P77	-79.9154165	43.3286969
P78	-79.9138777	43.3180575
P79	-79.9184338	43.3259625
P79	-79.9188102	43.3257822
P79	-79.9188561	43.3257154
P79	-79.9187919	43.3256353
P79	-79.9182686	43.325268
P79	-79.9179013	43.3250075
P79	-79.9174882	43.3247136
P79	-79.9172312	43.3245333
P79	-79.9169374	43.3243129
P79	-79.9168364	43.3242461
P79	-79.9167079	43.3242395
P79	-79.9165243	43.3244064
P79	-79.9161754	43.3248272
P80	-79.9119363	43.3295636
P80	-79.9121383	43.3298313
P80	-79.9121311	43.3299835
P80	-79.9120012	43.3300937
P83	-79.9108159	43.3274993
P83	-79.9107361	43.3276153
P85	-79.9109405	43.3296633
P85	-79.9112291	43.3294533
P87	-79.90277	43.3283155
P87	-79.901973	43.3289563
P87	-79.9011345	43.3296746
P87	-79.9007989	43.3297509
P87	-79.900327	43.3297738
P87	-79.9001487	43.329873
P91	-79.910991	43.3303824
P91	-79.9106663	43.3301462
P92	-79.9018651	43.3330697
P92	-79.9020853	43.3331994
P92	-79.9023056	43.3331231
P92	-79.9028089	43.3327341
P92	-79.9038157	43.3320247
P94	-79.9033358	43.3259526
P96	-79.9201115	43.3255875
P96	-79.9189638	43.326391
P97	-79.9131723	43.3188361
P99	-79.8991667	43.3293795
P99	-79.8991577	43.3295235
P99	-79.8995898	43.3297986
P100	-79.8997573	43.3314831
P100	-79.8998097	43.3316433
P100	-79.9001243	43.3318645
P100	-79.9006067	43.3321925
P101	-79.9106663	43.3260993
P104	-79.9107883	43.3198757
P104	-79.9104874	43.31967
P104	-79.9103142	43.319544
P104	-79.9101956	43.3195108
P104	-79.9100862	43.3195506
P104	-79.9097671	43.3198757
P105	-79.9120156	43.3311056
P109	-79.9151803	43.3243528
P109	-79.9154581	43.3242068
P109	-79.9156381	43.3240122
P109	-79.9159211	43.3237428
P109	-79.9159571	43.323638
P109	-79.9157925	43.3234921
P109	-79.9155661	43.3233312
P109	-79.9153655	43.3232114
P109	-79.9152421	43.3232077
P109	-79.9151186	43.3233012
P109	-79.9147534	43.3235819
P109	-79.9144139	43.3238176
P110	-79.9078155	43.334656
P110	-79.9071291	43.3351648
P113	-79.9119312	43.3219284
P114	-79.9146459	43.3278844
P114	-79.914845	43.3280419
P116	-79.9030758	43.3277222
P119	-79.9094698	43.3263677
P119	-79.9096891	43.3265998
P119	-79.9101279	43.3269117
P122	-79.9060864	43.3241081
P123	-79.9144679	43.3243276
P124	-79.9139384	43.330114
P124	-79.9133837	43.3305266
P124	-79.9129236	43.3308704
P124	-79.9126842	43.3310584
P126	-79.9092585	43.329944
P129	-79.9136848	43.3243004
P129	-79.913451	43.3244074
P130	-79.9048245	43.3292371
P130	-79.9042808	43.3288981
P130	-79.9042586	43.3287689
P130	-79.904536	43.328559
P132	-79.9043565	43.3327513
P133	-79.9158787	43.3138031
P134	-79.9154451	43.3181154
P134	-79.9155721	43.3179074
P135	-79.9096094	43.3275936
P135	-79.9091806	43.3272744
P135	-79.9087119	43.326948
P137	-79.9111792	43.3227692
P137	-79.9103687	43.3233755
P137	-79.9102089	43.3234668
P137	-79.9100948	43.3234419
P137	-79.9095126	43.3229935
P139	-79.9058761	43.3255076
P139	-79.9060864	43.3256376
P139	-79.9066961	43.3251635
P139	-79.9067171	43.3250258
P139	-79.9062546	43.3247582
P140	-79.9148018	43.3294813
P144	-79.9100472	43.3255019
P145	-79.9052138	43.3245899
P145	-79.9049931	43.3246664
P147	-79.9023717	43.3275916
P147	-79.9021826	43.3275654
P147	-79.9017595	43.3279256
P147	-79.9008412	43.3287049
P147	-79.9006972	43.328849
P147	-79.9003731	43.3289276
P147	-79.8998959	43.3289538
P147	-79.8996618	43.3290389
P148	-79.9152863	43.318693
P149	-79.9069195	43.3275277
P149	-79.9071791	43.3276491
P149	-79.9077354	43.3280335
P149	-79.9090545	43.3289728
P150	-79.9004853	43.3309215
P151	-79.9136142	43.3236903
P151	-79.9139468	43.3239404
P153	-79.9092623	43.3332674
P154	-79.9089014	43.325976
P155	-79.9177233	43.3260569
P156	-79.902405	43.3262686
P156	-79.9024919	43.3265124
P157	-79.9145766	43.3264231
P157	-79.9149662	43.3262278
P157	-79.9152953	43.3260767
P157	-79.915555	43.3259318
P157	-79.9157542	43.3257995
P157	-79.9158494	43.3256231
P158	-79.9129045	43.322924
P159	-79.9064553	43.3304423
P159	-79.9064386	43.3306009
P159	-79.9058264	43.3310462
P159	-79.905273	43.3314488
P159	-79.905273	43.3315586
P160	-79.9196332	43.3217981
P160	-79.9201831	43.3224056
P160	-79.9212626	43.3234428
P160	-79.9216496	43.3238133

[END]